VERSION 1.0
BEGCONMOD
  CONMOD 1 "New Model" "FEMWATER"
  3DFLOW 1
  3DTRAN 0
  2DFLOW 0
  1DFLOW 0
  FLOWPKG "LPF"
  TRANMOD "MT3DMS"
  REACT "No reaction (tracer transport)"
  SEEP2D
ENDCONMOD
BEGCOVATTS
COVGUID e098fc09-9866-4263-8d4c-baabc6329070
LAY 1 1
DEFAULT_ELEV 0.0
VISIBLE 1
INC 1
BOUND 0
HOR_ID 0
OBSOPT 0
COVTYPE "NONE"
USEFORMF 1
USEFORMT3D 1
CONMOD 1
BCS 0 
AREAL 1 "Meshing options" 
OBS 0 
BEGTABLE 0
NROWCOL 0 2
BEGCOL
COLATT "ID" 0 0 NONE

XYSERIES 0
ENDCOL
BEGCOL
COLATT "Name" 2 0 NONE

XYSERIES 0
ENDCOL
ENDTABLE
BEGTABLE 2
NROWCOL 6 4
BEGCOL
COLATT "ID" 0 6 NONE
1 2 3 4 5 6 
XYSERIES 0
ENDCOL
BEGCOL
COLATT "Name" 2 6 NONE
"" "" "" "" "" "" 
XYSERIES 0
ENDCOL
BEGCOL
COLATT "Node1 Node opts." 0 6 INT
0 0 0 0 0 0 
XYSERIES 0
ENDCOL
BEGCOL
COLATT "Node2 Node opts." 0 6 INT
0 0 0 0 0 0 
XYSERIES 0
ENDCOL
ENDTABLE
BEGTABLE 3
NROWCOL 2 5
BEGCOL
COLATT "ID" 0 2 NONE
1 2 
XYSERIES 0
ENDCOL
BEGCOL
COLATT "Name" 2 2 NONE
"" "" 
XYSERIES 0
ENDCOL
BEGCOL
COLATT "Material" 0 2 COMBOBOX
1 1 
XYSERIES 0
ENDCOL
BEGCOL
COLATT "Mesh opts." 0 2 BUTTON
1 1 
XYSERIES 0
ENDCOL
BEGCOL
COLATT "Bias" 1 2 DOUBLE
1.0 1.0 
XYSERIES 0
ENDCOL
ENDTABLE
BEGTABLE 4
NROWCOL 0 2
BEGCOL
COLATT "ID" 0 0 NONE

XYSERIES 0
ENDCOL
BEGCOL
COLATT "Name" 2 0 NONE

XYSERIES 0
ENDCOL
ENDTABLE
ENDCOVATTS
BEGTS
LEND
