VERSION 1.0
BEGCONMOD
  CONMOD 1 "New Model" "MODFLOW"
  3DFLOW 1
  3DTRAN 0
  2DFLOW 0
  1DFLOW 0
  FLOWPKG "LPF"
  TRANMOD "MT3DMS"
  REACT "No reaction (tracer transport)"
  SEEP2D
  UTEXAS
ENDCONMOD
BEGCOVATTS
COVGUID 07dd80fb-bf03-4a9b-ae05-4e96ca044e28
LAY 1 1
DEFAULT_ELEV 0.0
VISIBLE 1
INC 1
BOUND 1
HOR_ID 0
OBSOPT 0
COVTYPE "NONE"
USEFORMF 1
USEFORMT3D 1
CONMOD 1
BCS 1 "Refine points" 
AREAL 0 
OBS 0 
BEGTABLE 0
NROWCOL 1 6
BEGCOL
COLATT "ID" 0 1 NONE
17 
XYSERIES 0
ENDCOL
BEGCOL
COLATT "Name" 2 1 NONE
"point_17" 
XYSERIES 0
ENDCOL
BEGCOL
COLATT "Refine" 0 1 TOGGLE
1 
XYSERIES 0
ENDCOL
BEGCOL
COLATT "Base size" 1 1 DOUBLE
1.0 
XYSERIES 0
ENDCOL
BEGCOL
COLATT "Bias" 1 1 DOUBLE
1.1 
XYSERIES 0
ENDCOL
BEGCOL
COLATT "Max size" 1 1 DOUBLE
20.0 
XYSERIES 0
ENDCOL
ENDTABLE
BEGTABLE 2
NROWCOL 4 12
BEGCOL
COLATT "ID" 0 4 NONE
1 2 3 4 
XYSERIES 0
ENDCOL
BEGCOL
COLATT "Name" 2 4 NONE
"" "" "" "" 
XYSERIES 0
ENDCOL
BEGCOL
COLATT "Refine" 0 4 TOGGLE
0 0 0 0 
XYSERIES 0
ENDCOL
BEGCOL
COLATT "Base size" 1 4 DOUBLE
10.0 10.0 10.0 10.0 
XYSERIES 0
ENDCOL
BEGCOL
COLATT "Node1 Refine" 0 4 TOGGLE
0 0 0 0 
XYSERIES 0
ENDCOL
BEGCOL
COLATT "Node2 Refine" 0 4 TOGGLE
0 0 0 0 
XYSERIES 0
ENDCOL
BEGCOL
COLATT "Node1 Base size" 1 4 DOUBLE
0.0 0.0 0.0 0.0 
XYSERIES 0
ENDCOL
BEGCOL
COLATT "Node2 Base size" 1 4 DOUBLE
0.0 0.0 0.0 0.0 
XYSERIES 0
ENDCOL
BEGCOL
COLATT "Node1 Bias" 1 4 DOUBLE
0.0 0.0 0.0 0.0 
XYSERIES 0
ENDCOL
BEGCOL
COLATT "Node2 Bias" 1 4 DOUBLE
0.0 0.0 0.0 0.0 
XYSERIES 0
ENDCOL
BEGCOL
COLATT "Node1 Max size" 1 4 DOUBLE
0.0 0.0 0.0 0.0 
XYSERIES 0
ENDCOL
BEGCOL
COLATT "Node2 Max size" 1 4 DOUBLE
0.0 0.0 0.0 0.0 
XYSERIES 0
ENDCOL
ENDTABLE
BEGTABLE 3
NROWCOL 1 4
BEGCOL
COLATT "ID" 0 1 NONE
1 
XYSERIES 0
ENDCOL
BEGCOL
COLATT "Name" 2 1 NONE
"" 
XYSERIES 0
ENDCOL
BEGCOL
COLATT "Refine" 0 1 TOGGLE
0 
XYSERIES 0
ENDCOL
BEGCOL
COLATT "Base size" 1 1 DOUBLE
10.0 
XYSERIES 0
ENDCOL
ENDTABLE
BEGTABLE 4
NROWCOL 0 2
BEGCOL
COLATT "ID" 0 0 NONE

XYSERIES 0
ENDCOL
BEGCOL
COLATT "Name" 2 0 NONE

XYSERIES 0
ENDCOL
ENDTABLE
ENDCOVATTS
BEGTS
LEND
